%%%%%%%%%%%%%%%%%%%%%%%%%%%%%%%%%%%%%%%%%%%%%%%%%%%%%%%%%%%%%%%%%%%%%%%%%%%%%%%%
% S809 Delft Clean RE = 1 Million @ 5.13 AoA                                   %
% SU2 configuration file                                                       %
% Case description: Shape design of an RAE2822 (RANS)                          %
% Author: Francisco Palacios                                                   %
% Institution: Stanford University                                             %
% Date: 5/15/2013                                                              %
%                                                                              %
%%%%%%%%%%%%%%%%%%%%%%%%%%%%%%%%%%%%%%%%%%%%%%%%%%%%%%%%%%%%%%%%%%%%%%%%%%%%%%%%
PHYSICAL_PROBLEM= NAVIER_STOKES
KIND_TURB_MODEL= SA_FIML
KIND_TRANS_MODEL= BC
FREESTREAM_TURBULENCEINTENSITY= 0.03
MATH_PROBLEM= DIRECT
RESTART_SOL= NO
SYSTEM_MEASUREMENTS= SI
REGIME_TYPE= INCOMPRESSIBLE
FREESTREAM_DENSITY= 1.2886
FREESTREAM_VELOCITY= (47.741155606274972, 4.285982123483759 , 0.00 )
FREESTREAM_VISCOSITY= 1.853e-05
REYNOLDS_LENGTH= 0.6
UNSTEADY_SIMULATION= NO
REF_ORIGIN_MOMENT_X= 0.25
REF_ORIGIN_MOMENT_Y= 0.00
REF_ORIGIN_MOMENT_Z= 0.00
REF_LENGTH_MOMENT= 0.20
REF_AREA= 0.6
REF_ELEM_LENGTH= 0.1
MARKER_HEATFLUX= ( airfoil, 0.0 )
MARKER_FAR= ( farfield )
MARKER_PLOTTING= ( airfoil )
MARKER_MONITORING= ( airfoil )
MARKER_DESIGNING= ( airfoil )
NUM_METHOD_GRAD= GREEN_GAUSS
CFL_NUMBER= 4.0
CFL_ADAPT= NO
CFL_ADAPT_PARAM= ( 1.5, 0.5, 0.5, 100.0 )
EXT_ITER= 13500
LINEAR_SOLVER= FGMRES
LINEAR_SOLVER_PREC= LU_SGS
LINEAR_SOLVER_ERROR= 1E-6
LINEAR_SOLVER_ITER= 20
MGLEVEL= 3
MGCYCLE= V_CYCLE
MG_PRE_SMOOTH= ( 1, 2, 3, 3 )
MG_POST_SMOOTH= ( 0, 0, 0, 0 )
MG_CORRECTION_SMOOTH= ( 0, 0, 0, 0 )
MG_DAMP_RESTRICTION= 0.5
MG_DAMP_PROLONGATION= 0.5
CONV_NUM_METHOD_FLOW= JST
SPATIAL_ORDER_FLOW= 2ND_ORDER_LIMITER
SLOPE_LIMITER_FLOW= VENKATAKRISHNAN
LIMITER_COEFF= 0.3
AD_COEFF_FLOW= ( 0.15, 0.5, 0.02 )
TIME_DISCRE_FLOW= EULER_IMPLICIT
CONV_NUM_METHOD_TURB= SCALAR_UPWIND
SLOPE_LIMITER_TURB= VENKATAKRISHNAN
TIME_DISCRE_TURB= EULER_IMPLICIT
OBJECTIVE_FUNCTION= INVERSE_DESIGN_LIFT_FIML
CONV_NUM_METHOD_ADJFLOW= JST
SLOPE_LIMITER_ADJFLOW= VENKATAKRISHNAN
SHARP_EDGES_COEFF= 3.0
AD_COEFF_ADJFLOW= ( 0.15, 0.0, 0.008 )
CFL_REDUCTION_ADJFLOW= 1.0
TIME_DISCRE_ADJFLOW= EULER_IMPLICIT
LIMIT_ADJFLOW= 1E6
SENS_REMOVE_SHARP= NO
FROZEN_VISC= YES
GEO_MODE= FUNCTION
GEO_MARKER= ( airfoil )
CONV_CRITERIA= RESIDUAL
RESIDUAL_REDUCTION= 16
RESIDUAL_MINVAL= -18
STARTCONV_ITER= 10
CAUCHY_ELEMS= 100
CAUCHY_EPS= 1E-18
CAUCHY_FUNC_FLOW= LIFT
CAUCHY_FUNC_ADJFLOW= SENS_MACH
MESH_FILENAME= S809_fine5.su2
MESH_FORMAT= SU2
MESH_OUT_FILENAME= mesh_out.su2
SOLUTION_FLOW_FILENAME= solution_flow.dat
SOLUTION_ADJ_FILENAME= solution_adj.dat
OUTPUT_FORMAT= TECPLOT
CONV_FILENAME= history_direct
RESTART_FLOW_FILENAME= restart_flow.dat
RESTART_ADJ_FILENAME= restart_adj.dat
VOLUME_FLOW_FILENAME= flow
VOLUME_ADJ_FILENAME= adjoint
GRAD_OBJFUNC_FILENAME= of_grad.dat
SURFACE_FLOW_FILENAME= surface_flow
SURFACE_ADJ_FILENAME= surface_adjoint
WRT_SOL_FREQ= 13500.0
WRT_CON_FREQ= 10
DV_KIND= FIML
DV_MARKER= ( airfoil )
DV_PARAM= ( 1.0)
DV_VALUE= -0.0085008792638251
VISUALIZE_DEFORMATION= NO
INV_DESIGN_CP= NO
INV_DESIGN_HEATFLUX= NO
OPT_ACCURACY= 0
OPT_OBJECTIVE= INVERSE_DESIGN_LIFT_FIML * 1.0
OPT_CONSTRAINT= NONE
OPT_BOUND_UPPER= 15.0
OPT_BOUND_LOWER= -15.0
DEFINITION_DV= ( 103 , 1.0 | airfoil  | 1.0)
NPOIN= 47872
LAMBDA_FIML= 1.0E-4
TARGET_INVERSE_CL= 0.736
LAMBDA_GRID_FIML= 0.0
TRAIN_NN= YES
KIND_TRAIN_NN= WEIGHTS
N_NEURONS= 20
KIND_NN_SCALING= Q_TRANSFORM
N_BINS= 10
LEARNING_RATE= 0.01
ITER_START_NN= 10
NUM_EPOCH= 1
N_HIDDEN_LAYERS= 1
NUM_CASES= 7
